Circuit: * Z:\public\S\Lab2\アナログ回路II\光エレクトロニクスコース\LTspice\sim2015\Fig23\fig23trg3Vt1Vf10k.asc

Early termination of direct N-R iteration.
Direct Newton iteration failed to find .op point.  (Use ".option noopiter" to skip.)
Starting Gmin stepping
Gmin = 10
vernier = 0.5
vernier = 0.25
vernier = 0.125
Gmin = 5.5165
vernier = 0.0625
vernier = 0.03125
vernier = 0.015625
vernier = 0.0078125
Gmin = 5.49501
vernier = 0.00390625
vernier = 0.00195313
vernier = 0.000976563
vernier = 0.000488281
Gmin = 5.50104
Gmin = 0
Gmin stepping failed

Starting source stepping with srcstepmethod=0
Source Step = 3.0303%
Source Step = 33.3333%
Source Step = 63.6364%
Source Step = 93.9394%
Source stepping succeeded in finding the operating point.


Date: Wed Oct 28 13:22:54 2015
Total elapsed time: 0.823 seconds.

tnom = 27
temp = 27
method = modified trap
totiter = 5467
traniter = 3652
tranpoints = 1553
accept = 1387
rejected = 166
matrix size = 103
fillins = 989
solver = Normal
Thread vector: 16.6/10.4[2] 2.7/2.0[2] 3.4/2.9[2] 1.2/1.6[1]  2592/500
Matrix Compiler1: 147.62 KB object code size  24.0/12.1/[9.1]
Matrix Compiler2: 26.09 KB object code size  4.9/4.2/[2.2]


