Circuit: * Z:\public\S\Lab2\アナログ回路II\光エレクトロニクスコース\LTspice\sim2015\Fig19\fig19sine.asc

.OP point found by inspection.
.step ampl=1
.step ampl=2
.step ampl=4


Measurement: ans1
  step	AVG(v(out))	FROM	TO
     1	0.11879	0.001	0.003
     2	0.403533	0.001	0.003
     3	1.01592	0.001	0.003


Date: Wed Oct 28 13:25:23 2015
Total elapsed time: 0.197 seconds.

tnom = 27
temp = 27
method = modified trap
totiter = 2190
traniter = 2190
tranpoints = 1057
accept = 1048
rejected = 9
matrix size = 3
fillins = 0
solver = Normal
Matrix Compiler1: off  [0.0]/0.0/0.0
Matrix Compiler2: off  [0.0]/0.1/0.1


